Circuit: * C:\Users\micro\Desktop\Simulation Files\Emitter.asc

Direct Newton iteration for .op point succeeded.

Date: Sun Jul 03 14:38:20 2022
Total elapsed time: 1.820 seconds.

tnom = 27
temp = 27
method = modified trap
totiter = 355697
traniter = 355685
tranpoints = 145824
accept = 134298
rejected = 11526
matrix size = 40
fillins = 14
solver = Normal
Matrix Compiler1: 3.44 KB object code size  0.5/0.3/[0.2]
Matrix Compiler2: 3.58 KB object code size  0.2/0.3/[0.2]

